@<TRIPOS>MOLECULE
OPA1_HD_no_solv_partial_op
47   50    1
SMALL
USER_CHARGES


@<TRIPOS>ATOM
      1 C1         -0.6573   -0.1768   -0.3311 C.3       1 UNK         0.0000 
      2 C2         -1.1085    0.0026   -1.7912 C.3       1 UNK         0.0000 
      3 O3         -1.1363    1.4241   -1.8020 O.3       1 UNK         0.0000 
      4 P4         -1.0093    1.6488   -0.0122 P.3       1 UNK         0.0000 
      5 C5         -2.7643    2.1618    0.1065 C.ar      1 UNK         0.0000 
      6 C6         -0.5993    1.5949    1.8704 C.ar      1 UNK         0.0000 
      7 C7          0.1185    3.0915   -0.2844 C.ar      1 UNK         0.0000 
      8 C8         -1.4261    2.0218    2.9108 C.ar      1 UNK         0.0000 
      9 C9         -1.0126    1.9622    4.2403 C.ar      1 UNK         0.0000 
     10 C10         0.2459    1.4755    4.5624 C.ar      1 UNK         0.0000 
     11 C11         1.0935    1.0594    3.5406 C.ar      1 UNK         0.0000 
     12 C12         0.6732    1.1243    2.2199 C.ar      1 UNK         0.0000 
     13 C13         0.0751    4.1902    0.5782 C.ar      1 UNK         0.0000 
     14 C14         0.9067    5.2822    0.3757 C.ar      1 UNK         0.0000 
     15 C15         1.8261    5.2755   -0.6684 C.ar      1 UNK         0.0000 
     16 C16         1.8887    4.1814   -1.5212 C.ar      1 UNK         0.0000 
     17 C17         1.0261    3.1047   -1.3437 C.ar      1 UNK         0.0000 
     18 C18        -3.7077    1.4054    0.8018 C.ar      1 UNK         0.0000 
     19 C19        -5.0486    1.7723    0.7978 C.ar      1 UNK         0.0000 
     20 C20        -5.4578    2.9115    0.1163 C.ar      1 UNK         0.0000 
     21 C21        -4.5208    3.6750   -0.5723 C.ar      1 UNK         0.0000 
     22 C22        -3.1856    3.2955   -0.5892 C.ar      1 UNK         0.0000 
     23 C23        -1.2488   -1.2657    0.5477 C.3       1 UNK         0.0000 
     24 C24        -2.4495   -0.6085   -2.1723 C.3       1 UNK         0.0000 
     25 H25         0.4329   -0.2540   -0.3095 H         1 UNK         0.0000 
     26 H26        -0.3450   -0.3555   -2.4945 H         1 UNK         0.0000 
     27 H27        -2.4076    2.4209    2.6963 H         1 UNK         0.0000 
     28 H28        -1.6801    2.3024    5.0230 H         1 UNK         0.0000 
     29 H29         0.5680    1.4270    5.5949 H         1 UNK         0.0000 
     30 H30         2.0849    0.6899    3.7730 H         1 UNK         0.0000 
     31 H31         1.3669    0.8173    1.4452 H         1 UNK         0.0000 
     32 H32        -0.6108    4.1970    1.4142 H         1 UNK         0.0000 
     33 H33         0.8449    6.1340    1.0413 H         1 UNK         0.0000 
     34 H34         2.4871    6.1205   -0.8164 H         1 UNK         0.0000 
     35 H35         2.5988    4.1689   -2.3387 H         1 UNK         0.0000 
     36 H36         1.0396    2.2796   -2.0397 H         1 UNK         0.0000 
     37 H37        -3.4010    0.5306    1.3582 H         1 UNK         0.0000 
     38 H38        -5.7706    1.1698    1.3347 H         1 UNK         0.0000 
     39 H39        -6.5007    3.2024    0.1195 H         1 UNK         0.0000 
     40 H40        -4.8322    4.5623   -1.1093 H         1 UNK         0.0000 
     41 H41        -2.4689    3.8733   -1.1571 H         1 UNK         0.0000 
     42 H42        -0.9208   -2.2474    0.1963 H         1 UNK         0.0000 
     43 H43        -0.9215   -1.1562    1.5815 H         1 UNK         0.0000 
     44 H44        -2.3378   -1.2604    0.5308 H         1 UNK         0.0000 
     45 H45        -2.4084   -1.7004   -2.1482 H         1 UNK         0.0000 
     46 H46        -3.2426   -0.2709   -1.5049 H         1 UNK         0.0000 
     47 H47        -2.7093   -0.2949   -3.1841 H         1 UNK         0.0000 
@<TRIPOS>BOND
     1    1   25 1    
     2    1   23 1    
     3    1    2 1    
     4    1    4 1    
     5    2   26 1    
     6    2    3 1    
     7    2   24 1    
     8    3    4 1    
     9    4    5 1    
    10    4    7 1    
    11    4    6 1    
    12    5   18 ar   
    13    5   22 ar   
    14    6    8 ar   
    15    6   12 ar   
    16    7   17 ar   
    17    7   13 ar   
    18    8   27 1    
    19    8    9 ar   
    20    9   28 1    
    21    9   10 ar   
    22   10   29 1    
    23   10   11 ar   
    24   11   30 1    
    25   11   12 ar   
    26   12   31 1    
    27   13   32 1    
    28   13   14 ar   
    29   14   33 1    
    30   14   15 ar   
    31   15   34 1    
    32   15   16 ar   
    33   16   35 1    
    34   16   17 ar   
    35   17   36 1    
    36   18   37 1    
    37   18   19 ar   
    38   19   38 1    
    39   19   20 ar   
    40   20   39 1    
    41   20   21 ar   
    42   21   40 1    
    43   21   22 ar   
    44   22   41 1    
    45   23   44 1    
    46   23   43 1    
    47   23   42 1    
    48   24   46 1    
    49   24   47 1    
    50   24   45 1    
@<TRIPOS>SUBSTRUCTURE
     1 UNK         1 GROUP             0       ****    0 ROOT    
@<TRIPOS>MOLECULE
en-OPA1_HD_no_solv
47   50    1
SMALL
USER_CHARGES


@<TRIPOS>ATOM
      1 C1          0.6573   -0.1768   -0.3311 C.3       1 UNK         0.0000 
      2 C2          1.1085    0.0026   -1.7912 C.3       1 UNK         0.0000 
      3 O3          1.1363    1.4241   -1.8020 O.3       1 UNK         0.0000 
      4 P4          1.0093    1.6488   -0.0122 P.3       1 UNK         0.0000 
      5 C5          2.7643    2.1618    0.1065 C.ar      1 UNK         0.0000 
      6 C6          0.5993    1.5949    1.8704 C.ar      1 UNK         0.0000 
      7 C7         -0.1185    3.0915   -0.2844 C.ar      1 UNK         0.0000 
      8 C8          1.4261    2.0218    2.9108 C.ar      1 UNK         0.0000 
      9 C9          1.0126    1.9622    4.2403 C.ar      1 UNK         0.0000 
     10 C10        -0.2459    1.4755    4.5624 C.ar      1 UNK         0.0000 
     11 C11        -1.0935    1.0594    3.5406 C.ar      1 UNK         0.0000 
     12 C12        -0.6732    1.1243    2.2199 C.ar      1 UNK         0.0000 
     13 C13        -0.0751    4.1902    0.5782 C.ar      1 UNK         0.0000 
     14 C14        -0.9067    5.2822    0.3757 C.ar      1 UNK         0.0000 
     15 C15        -1.8261    5.2755   -0.6684 C.ar      1 UNK         0.0000 
     16 C16        -1.8887    4.1814   -1.5212 C.ar      1 UNK         0.0000 
     17 C17        -1.0261    3.1047   -1.3437 C.ar      1 UNK         0.0000 
     18 C18         3.7077    1.4054    0.8018 C.ar      1 UNK         0.0000 
     19 C19         5.0486    1.7723    0.7978 C.ar      1 UNK         0.0000 
     20 C20         5.4578    2.9115    0.1163 C.ar      1 UNK         0.0000 
     21 C21         4.5208    3.6750   -0.5723 C.ar      1 UNK         0.0000 
     22 C22         3.1856    3.2955   -0.5892 C.ar      1 UNK         0.0000 
     23 C23         1.2488   -1.2657    0.5477 C.3       1 UNK         0.0000 
     24 C24         2.4495   -0.6085   -2.1723 C.3       1 UNK         0.0000 
     25 H25        -0.4329   -0.2540   -0.3095 H         1 UNK         0.0000 
     26 H26         0.3450   -0.3555   -2.4945 H         1 UNK         0.0000 
     27 H27         2.4076    2.4209    2.6963 H         1 UNK         0.0000 
     28 H28         1.6801    2.3024    5.0230 H         1 UNK         0.0000 
     29 H29        -0.5680    1.4270    5.5949 H         1 UNK         0.0000 
     30 H30        -2.0849    0.6899    3.7730 H         1 UNK         0.0000 
     31 H31        -1.3669    0.8173    1.4452 H         1 UNK         0.0000 
     32 H32         0.6108    4.1970    1.4142 H         1 UNK         0.0000 
     33 H33        -0.8449    6.1340    1.0413 H         1 UNK         0.0000 
     34 H34        -2.4871    6.1205   -0.8164 H         1 UNK         0.0000 
     35 H35        -2.5988    4.1689   -2.3387 H         1 UNK         0.0000 
     36 H36        -1.0396    2.2796   -2.0397 H         1 UNK         0.0000 
     37 H37         3.4010    0.5306    1.3582 H         1 UNK         0.0000 
     38 H38         5.7706    1.1698    1.3347 H         1 UNK         0.0000 
     39 H39         6.5007    3.2024    0.1195 H         1 UNK         0.0000 
     40 H40         4.8322    4.5623   -1.1093 H         1 UNK         0.0000 
     41 H41         2.4689    3.8733   -1.1571 H         1 UNK         0.0000 
     42 H42         0.9208   -2.2474    0.1963 H         1 UNK         0.0000 
     43 H43         0.9215   -1.1562    1.5815 H         1 UNK         0.0000 
     44 H44         2.3378   -1.2604    0.5308 H         1 UNK         0.0000 
     45 H45         2.4084   -1.7004   -2.1482 H         1 UNK         0.0000 
     46 H46         3.2426   -0.2709   -1.5049 H         1 UNK         0.0000 
     47 H47         2.7093   -0.2949   -3.1841 H         1 UNK         0.0000 
@<TRIPOS>BOND
     1    1   25 1    
     2    1   23 1    
     3    1    2 1    
     4    1    4 1    
     5    2   26 1    
     6    2    3 1    
     7    2   24 1    
     8    3    4 1    
     9    4    5 1    
    10    4    7 1    
    11    4    6 1    
    12    5   18 ar   
    13    5   22 ar   
    14    6    8 ar   
    15    6   12 ar   
    16    7   17 ar   
    17    7   13 ar   
    18    8   27 1    
    19    8    9 ar   
    20    9   28 1    
    21    9   10 ar   
    22   10   29 1    
    23   10   11 ar   
    24   11   30 1    
    25   11   12 ar   
    26   12   31 1    
    27   13   32 1    
    28   13   14 ar   
    29   14   33 1    
    30   14   15 ar   
    31   15   34 1    
    32   15   16 ar   
    33   16   35 1    
    34   16   17 ar   
    35   17   36 1    
    36   18   37 1    
    37   18   19 ar   
    38   19   38 1    
    39   19   20 ar   
    40   20   39 1    
    41   20   21 ar   
    42   21   40 1    
    43   21   22 ar   
    44   22   41 1    
    45   23   44 1    
    46   23   43 1    
    47   23   42 1    
    48   24   46 1    
    49   24   47 1    
    50   24   45 1    
@<TRIPOS>SUBSTRUCTURE
     1 UNK         1 GROUP             0       ****    0 ROOT    
@<TRIPOS>MOLECULE
OPA0_HD_no_solv_partial_op
47   50    1
SMALL
USER_CHARGES


@<TRIPOS>ATOM
      1 C1         -0.4720   -0.1632   -0.1234 C.3       1 UNK         0.0000 
      2 C2         -0.6741   -0.0298   -1.6338 C.3       1 UNK         0.0000 
      3 O3         -1.5292    1.1035   -1.6077 O.3       1 UNK         0.0000 
      4 P4         -1.1016    1.6024    0.0793 P.3       1 UNK         0.0000 
      5 C5         -2.8322    2.2190    0.3172 C.ar      1 UNK         0.0000 
      6 C6         -0.7147    1.7353    1.9584 C.ar      1 UNK         0.0000 
      7 C7          0.0189    2.9140   -0.5367 C.ar      1 UNK         0.0000 
      8 C8         -1.3047    0.7714    2.7858 C.ar      1 UNK         0.0000 
      9 C9         -1.1159    0.7730    4.1605 C.ar      1 UNK         0.0000 
     10 C10        -0.3270    1.7537    4.7536 C.ar      1 UNK         0.0000 
     11 C11         0.2562    2.7274    3.9558 C.ar      1 UNK         0.0000 
     12 C12         0.0617    2.7169    2.5760 C.ar      1 UNK         0.0000 
     13 C13        -0.5101    3.9410   -1.3202 C.ar      1 UNK         0.0000 
     14 C14         0.3184    4.9218   -1.8468 C.ar      1 UNK         0.0000 
     15 C15         1.6910    4.8737   -1.6236 C.ar      1 UNK         0.0000 
     16 C16         2.2274    3.8442   -0.8617 C.ar      1 UNK         0.0000 
     17 C17         1.3946    2.8751   -0.3122 C.ar      1 UNK         0.0000 
     18 C18        -3.9182    1.5779   -0.2804 C.ar      1 UNK         0.0000 
     19 C19        -5.2134    2.0403   -0.0722 C.ar      1 UNK         0.0000 
     20 C20        -5.4370    3.1706    0.7022 C.ar      1 UNK         0.0000 
     21 C21        -4.3590    3.8308    1.2828 C.ar      1 UNK         0.0000 
     22 C22        -3.0703    3.3470    1.1088 C.ar      1 UNK         0.0000 
     23 C23         0.8687   -0.6147    0.4253 C.3       1 UNK         0.0000 
     24 C24        -1.3140   -1.2082   -2.3432 C.3       1 UNK         0.0000 
     25 H25        -1.2704   -0.7932    0.2812 H         1 UNK         0.0000 
     26 H26         0.2842    0.2111   -2.1207 H         1 UNK         0.0000 
     27 H27        -1.9434    0.0082    2.3548 H         1 UNK         0.0000 
     28 H28        -1.5881    0.0125    4.7706 H         1 UNK         0.0000 
     29 H29        -0.1760    1.7600    5.8257 H         1 UNK         0.0000 
     30 H30         0.8640    3.5042    4.4040 H         1 UNK         0.0000 
     31 H31         0.5197    3.4984    1.9857 H         1 UNK         0.0000 
     32 H32        -1.5716    3.9645   -1.5272 H         1 UNK         0.0000 
     33 H33        -0.1071    5.7190   -2.4434 H         1 UNK         0.0000 
     34 H34         2.3376    5.6336   -2.0438 H         1 UNK         0.0000 
     35 H35         3.2946    3.7961   -0.6852 H         1 UNK         0.0000 
     36 H36         1.8239    2.0993    0.3059 H         1 UNK         0.0000 
     37 H37        -3.7421    0.7301   -0.9244 H         1 UNK         0.0000 
     38 H38        -6.0461    1.5217   -0.5305 H         1 UNK         0.0000 
     39 H39        -6.4443    3.5383    0.8520 H         1 UNK         0.0000 
     40 H40        -4.5221    4.7173    1.8825 H         1 UNK         0.0000 
     41 H41        -2.2470    3.8536    1.5934 H         1 UNK         0.0000 
     42 H42         1.0189   -1.6771    0.2161 H         1 UNK         0.0000 
     43 H43         1.6925   -0.0713   -0.0387 H         1 UNK         0.0000 
     44 H44         0.9276   -0.4771    1.5050 H         1 UNK         0.0000 
     45 H45        -0.6586   -2.0825   -2.3130 H         1 UNK         0.0000 
     46 H46        -2.2632   -1.4660   -1.8678 H         1 UNK         0.0000 
     47 H47        -1.5104   -0.9621   -3.3878 H         1 UNK         0.0000 
@<TRIPOS>BOND
     1    1   25 1    
     2    1   23 1    
     3    1    2 1    
     4    1    4 1    
     5    2   26 1    
     6    2    3 1    
     7    2   24 1    
     8    3    4 1    
     9    4    7 1    
    10    4    5 1    
    11    4    6 1    
    12    5   18 ar   
    13    5   22 ar   
    14    6   12 ar   
    15    6    8 ar   
    16    7   17 ar   
    17    7   13 ar   
    18    8   27 1    
    19    8    9 ar   
    20    9   28 1    
    21    9   10 ar   
    22   10   29 1    
    23   10   11 ar   
    24   11   30 1    
    25   11   12 ar   
    26   12   31 1    
    27   13   32 1    
    28   13   14 ar   
    29   14   33 1    
    30   14   15 ar   
    31   15   34 1    
    32   15   16 ar   
    33   16   35 1    
    34   16   17 ar   
    35   17   36 1    
    36   18   37 1    
    37   18   19 ar   
    38   19   38 1    
    39   19   20 ar   
    40   20   39 1    
    41   20   21 ar   
    42   21   40 1    
    43   21   22 ar   
    44   22   41 1    
    45   23   44 1    
    46   23   43 1    
    47   23   42 1    
    48   24   47 1    
    49   24   46 1    
    50   24   45 1    
@<TRIPOS>SUBSTRUCTURE
     1 UNK         1 GROUP             0       ****    0 ROOT    
@<TRIPOS>MOLECULE
en-OPA0_HD_no_solv2
47   50    1
SMALL
USER_CHARGES


@<TRIPOS>ATOM
      1 C1          0.4715   -0.1623   -0.1251 C.3       1 UNK         0.0000 
      2 C2          0.6747   -0.0277   -1.6352 C.3       1 UNK         0.0000 
      3 O3          1.5307    1.1047   -1.6073 O.3       1 UNK         0.0000 
      4 P4          1.1020    1.6028    0.0795 P.3       1 UNK         0.0000 
      5 C5          2.8319    2.2198    0.3183 C.ar      1 UNK         0.0000 
      6 C6          0.7153    1.7342    1.9589 C.ar      1 UNK         0.0000 
      7 C7         -0.0188    2.9138   -0.5366 C.ar      1 UNK         0.0000 
      8 C8          1.3047    0.7689    2.7846 C.ar      1 UNK         0.0000 
      9 C9          1.1171    0.7691    4.1596 C.ar      1 UNK         0.0000 
     10 C10         0.3298    1.7500    4.7545 C.ar      1 UNK         0.0000 
     11 C11        -0.2527    2.7254    3.9582 C.ar      1 UNK         0.0000 
     12 C12        -0.0593    2.7161    2.5782 C.ar      1 UNK         0.0000 
     13 C13         0.5088    3.9365   -1.3265 C.ar      1 UNK         0.0000 
     14 C14        -0.3200    4.9168   -1.8535 C.ar      1 UNK         0.0000 
     15 C15        -1.6918    4.8723   -1.6242 C.ar      1 UNK         0.0000 
     16 C16        -2.2271    3.8468   -0.8560 C.ar      1 UNK         0.0000 
     17 C17        -1.3937    2.8781   -0.3064 C.ar      1 UNK         0.0000 
     18 C18         3.9187    1.5741   -0.2714 C.ar      1 UNK         0.0000 
     19 C19         5.2137    2.0367   -0.0621 C.ar      1 UNK         0.0000 
     20 C20         5.4355    3.1725    0.7054 C.ar      1 UNK         0.0000 
     21 C21         4.3555    3.8373    1.2775 C.ar      1 UNK         0.0000 
     22 C22         3.0673    3.3527    1.1023 C.ar      1 UNK         0.0000 
     23 C23        -0.8702   -0.6127    0.4219 C.3       1 UNK         0.0000 
     24 C24         1.3141   -1.2058   -2.3455 C.3       1 UNK         0.0000 
     25 H25         1.2692   -0.7934    0.2792 H         1 UNK         0.0000 
     26 H26        -0.2830    0.2149   -2.1225 H         1 UNK         0.0000 
     27 H27         1.9420    0.0054    2.3524 H         1 UNK         0.0000 
     28 H28         1.5889    0.0073    4.7684 H         1 UNK         0.0000 
     29 H29         0.1796    1.7553    5.8269 H         1 UNK         0.0000 
     30 H30        -0.8592    3.5026    4.4078 H         1 UNK         0.0000 
     31 H31        -0.5167    3.4990    1.9893 H         1 UNK         0.0000 
     32 H32         1.5693    3.9568   -1.5385 H         1 UNK         0.0000 
     33 H33         0.1044    5.7107   -2.4552 H         1 UNK         0.0000 
     34 H34        -2.3387    5.6319   -2.0445 H         1 UNK         0.0000 
     35 H35        -3.2937    3.8014   -0.6747 H         1 UNK         0.0000 
     36 H36        -1.8218    2.1051    0.3162 H         1 UNK         0.0000 
     37 H37         3.7443    0.7220   -0.9103 H         1 UNK         0.0000 
     38 H38         6.0478    1.5144   -0.5139 H         1 UNK         0.0000 
     39 H39         6.4427    3.5407    0.8562 H         1 UNK         0.0000 
     40 H40         4.5170    4.7282    1.8714 H         1 UNK         0.0000 
     41 H41         2.2428    3.8630    1.5804 H         1 UNK         0.0000 
     42 H42        -1.0219   -1.6745    0.2107 H         1 UNK         0.0000 
     43 H43        -1.6927   -0.0670   -0.0418 H         1 UNK         0.0000 
     44 H44        -0.9297   -0.4769    1.5019 H         1 UNK         0.0000 
     45 H45         0.6578   -2.0795   -2.3167 H         1 UNK         0.0000 
     46 H46         2.2627   -1.4649   -1.8696 H         1 UNK         0.0000 
     47 H47         1.5114   -0.9588   -3.3897 H         1 UNK         0.0000 
@<TRIPOS>BOND
     1    1   25 1    
     2    1   23 1    
     3    1    2 1    
     4    1    4 1    
     5    2   26 1    
     6    2    3 1    
     7    2   24 1    
     8    3    4 1    
     9    4    7 1    
    10    4    5 1    
    11    4    6 1    
    12    5   18 ar   
    13    5   22 ar   
    14    6   12 ar   
    15    6    8 ar   
    16    7   17 ar   
    17    7   13 ar   
    18    8   27 1    
    19    8    9 ar   
    20    9   28 1    
    21    9   10 ar   
    22   10   29 1    
    23   10   11 ar   
    24   11   30 1    
    25   11   12 ar   
    26   12   31 1    
    27   13   32 1    
    28   13   14 ar   
    29   14   33 1    
    30   14   15 ar   
    31   15   34 1    
    32   15   16 ar   
    33   16   35 1    
    34   16   17 ar   
    35   17   36 1    
    36   18   37 1    
    37   18   19 ar   
    38   19   38 1    
    39   19   20 ar   
    40   20   39 1    
    41   20   21 ar   
    42   21   40 1    
    43   21   22 ar   
    44   22   41 1    
    45   23   44 1    
    46   23   43 1    
    47   23   42 1    
    48   24   47 1    
    49   24   46 1    
    50   24   45 1    
@<TRIPOS>SUBSTRUCTURE
     1 UNK         1 GROUP             0       ****    0 ROOT    
@<TRIPOS>MOLECULE
OPA1_template
26   26    1
SMALL
USER_CHARGES


@<TRIPOS>ATOM
      1 C1         -0.6573   -0.1768   -0.3311 C.3       1 UNK         0.0000 
      2 C2         -1.1085    0.0026   -1.7912 C.3       1 UNK         0.0000 
      3 O3         -1.1363    1.4241   -1.8020 O.3       1 UNK         0.0000 
      4 P4         -1.0093    1.6488   -0.0122 P.3       1 UNK         0.0000 
      5 C5         -2.7643    2.1618    0.1065 C.3       1 UNK         0.0000 
      6 C6         -0.5993    1.5949    1.8704 C.3       1 UNK         0.0000 
      7 C7          0.1185    3.0915   -0.2844 C.3       1 UNK         0.0000 
      8 C8         -1.2488   -1.2657    0.5477 C.3       1 UNK         0.0000 
      9 C9         -2.4495   -0.6085   -2.1723 C.3       1 UNK         0.0000 
     10 H10         0.4329   -0.2540   -0.3095 H         1 UNK         0.0000 
     11 H11        -0.3450   -0.3555   -2.4945 H         1 UNK         0.0000 
     12 H12        -0.9208   -2.2474    0.1963 H         1 UNK         0.0000 
     13 H13        -0.9215   -1.1562    1.5815 H         1 UNK         0.0000 
     14 H14        -2.3378   -1.2604    0.5308 H         1 UNK         0.0000 
     15 H15        -2.4084   -1.7004   -2.1482 H         1 UNK         0.0000 
     16 H16        -3.2426   -0.2709   -1.5049 H         1 UNK         0.0000 
     17 H17        -2.7093   -0.2949   -3.1841 H         1 UNK         0.0000 
     18 H18        -0.7362    2.5868    2.3011 H         1 UNK         0.0000 
     19 H19        -1.2642    0.8886    2.3675 H         1 UNK         0.0000 
     20 H20         0.4347    1.2788    2.0086 H         1 UNK         0.0000 
     21 H21        -2.8181    3.2346    0.2912 H         1 UNK         0.0000 
     22 H22        -3.2756    1.9283   -0.8274 H         1 UNK         0.0000 
     23 H23        -3.2448    1.6279    0.9264 H         1 UNK         0.0000 
     24 H24        -0.3922    4.0114    0.0005 H         1 UNK         0.0000 
     25 H25         1.0157    2.9716    0.3228 H         1 UNK         0.0000 
     26 H26         0.3969    3.1422   -1.3371 H         1 UNK         0.0000 
@<TRIPOS>BOND
     1    1   10 1    
     2    1    8 1    
     3    1    2 1    
     4    1    4 1    
     5    2   11 1    
     6    2    3 1    
     7    2    9 1    
     8    3    4 1    
     9    4    5 1    
    10    4    7 1    
    11    4    6 1    
    12    5   21 1    
    13    5   22 1    
    14    5   23 1    
    15    6   18 1    
    16    6   19 1    
    17    6   20 1    
    18    7   24 1    
    19    7   25 1    
    20    7   26 1    
    21    8   14 1    
    22    8   13 1    
    23    8   12 1    
    24    9   16 1    
    25    9   17 1    
    26    9   15 1    
@<TRIPOS>SUBSTRUCTURE
     1 UNK         1 GROUP             0       ****    0 ROOT    
@<TRIPOS>MOLECULE
en-OP1_template
26   26    1
SMALL
USER_CHARGES


@<TRIPOS>ATOM
      1 C1          0.6573   -0.1768   -0.3311 C.3       1 UNK         0.0000 
      2 C2          1.1085    0.0026   -1.7912 C.3       1 UNK         0.0000 
      3 O3          1.1363    1.4241   -1.8020 O.3       1 UNK         0.0000 
      4 P4          1.0093    1.6488   -0.0122 P.3       1 UNK         0.0000 
      5 C5          2.7643    2.1618    0.1065 C.3       1 UNK         0.0000 
      6 C6          0.5993    1.5949    1.8704 C.3       1 UNK         0.0000 
      7 C7         -0.1185    3.0915   -0.2844 C.3       1 UNK         0.0000 
      8 C8          1.2488   -1.2657    0.5477 C.3       1 UNK         0.0000 
      9 C9          2.4495   -0.6085   -2.1723 C.3       1 UNK         0.0000 
     10 H10        -0.4329   -0.2540   -0.3095 H         1 UNK         0.0000 
     11 H11         0.3450   -0.3555   -2.4945 H         1 UNK         0.0000 
     12 H12         0.9208   -2.2474    0.1963 H         1 UNK         0.0000 
     13 H13         0.9215   -1.1562    1.5815 H         1 UNK         0.0000 
     14 H14         2.3378   -1.2604    0.5308 H         1 UNK         0.0000 
     15 H15         2.4084   -1.7004   -2.1482 H         1 UNK         0.0000 
     16 H16         3.2426   -0.2709   -1.5049 H         1 UNK         0.0000 
     17 H17         2.7093   -0.2949   -3.1841 H         1 UNK         0.0000 
     18 H18         2.8181    3.2346    0.2912 H         1 UNK         0.0000 
     19 H19         3.2448    1.6279    0.9264 H         1 UNK         0.0000 
     20 H20         3.2756    1.9283   -0.8274 H         1 UNK         0.0000 
     21 H21         0.7362    2.5868    2.3011 H         1 UNK         0.0000 
     22 H22        -0.4347    1.2788    2.0086 H         1 UNK         0.0000 
     23 H23         1.2642    0.8886    2.3675 H         1 UNK         0.0000 
     24 H24         0.3922    4.0114    0.0005 H         1 UNK         0.0000 
     25 H25        -0.3969    3.1422   -1.3371 H         1 UNK         0.0000 
     26 H26        -1.0157    2.9716    0.3228 H         1 UNK         0.0000 
@<TRIPOS>BOND
     1    1   10 1    
     2    1    8 1    
     3    1    2 1    
     4    1    4 1    
     5    2   11 1    
     6    2    3 1    
     7    2    9 1    
     8    3    4 1    
     9    4    5 1    
    10    4    7 1    
    11    4    6 1    
    12    5   18 1    
    13    5   19 1    
    14    5   20 1    
    15    6   21 1    
    16    6   22 1    
    17    6   23 1    
    18    7   24 1    
    19    7   25 1    
    20    7   26 1    
    21    8   14 1    
    22    8   13 1    
    23    8   12 1    
    24    9   16 1    
    25    9   17 1    
    26    9   15 1    
@<TRIPOS>SUBSTRUCTURE
     1 UNK         1 GROUP             0       ****    0 ROOT    
@<TRIPOS>MOLECULE
OPA0_template
26   26    1
SMALL
USER_CHARGES


@<TRIPOS>ATOM
      1 C1         -0.4715   -0.1623   -0.1251 C.3       1 UNK         0.0000 
      2 C2         -0.6747   -0.0277   -1.6352 C.3       1 UNK         0.0000 
      3 O3         -1.5307    1.1047   -1.6073 O.3       1 UNK         0.0000 
      4 P4         -1.1020    1.6028    0.0795 P.3       1 UNK         0.0000 
      5 C5         -2.8319    2.2198    0.3183 C.3       1 UNK         0.0000 
      6 C6         -0.7153    1.7342    1.9589 C.3       1 UNK         0.0000 
      7 C7          0.0188    2.9138   -0.5366 C.3       1 UNK         0.0000 
      8 C8          0.8702   -0.6127    0.4219 C.3       1 UNK         0.0000 
      9 C9         -1.3141   -1.2058   -2.3455 C.3       1 UNK         0.0000 
     10 H10        -1.2692   -0.7934    0.2792 H         1 UNK         0.0000 
     11 H11         0.2830    0.2149   -2.1225 H         1 UNK         0.0000 
     12 H12         1.0219   -1.6745    0.2107 H         1 UNK         0.0000 
     13 H13         1.6927   -0.0670   -0.0418 H         1 UNK         0.0000 
     14 H14         0.9297   -0.4769    1.5019 H         1 UNK         0.0000 
     15 H15        -0.6578   -2.0795   -2.3167 H         1 UNK         0.0000 
     16 H16        -2.2627   -1.4649   -1.8696 H         1 UNK         0.0000 
     17 H17        -1.5114   -0.9588   -3.3897 H         1 UNK         0.0000 
     18 H18        -2.8224    3.3067    0.4002 H         1 UNK         0.0000 
     19 H19        -3.4441    1.9256   -0.5342 H         1 UNK         0.0000 
     20 H20        -3.2487    1.7909    1.2296 H         1 UNK         0.0000 
     21 H21        -1.0089    2.7188    2.3228 H         1 UNK         0.0000 
     22 H22        -1.2705    0.9674    2.4991 H         1 UNK         0.0000 
     23 H23         0.3529    1.5911    2.1214 H         1 UNK         0.0000 
     24 H24        -0.4375    3.8899   -0.3714 H         1 UNK         0.0000 
     25 H25         0.9676    2.8619   -0.0027 H         1 UNK         0.0000 
     26 H26         0.1942    2.7711   -1.6029 H         1 UNK         0.0000 
@<TRIPOS>BOND
     1    1   10 1    
     2    1    8 1    
     3    1    2 1    
     4    1    4 1    
     5    2   11 1    
     6    2    3 1    
     7    2    9 1    
     8    3    4 1    
     9    4    7 1    
    10    4    5 1    
    11    4    6 1    
    12    5   18 1    
    13    5   19 1    
    14    5   20 1    
    15    6   21 1    
    16    6   22 1    
    17    6   23 1    
    18    7   24 1    
    19    7   25 1    
    20    7   26 1    
    21    8   14 1    
    22    8   13 1    
    23    8   12 1    
    24    9   17 1    
    25    9   16 1    
    26    9   15 1    
@<TRIPOS>SUBSTRUCTURE
     1 UNK         1 GROUP             0       ****    0 ROOT    
@<TRIPOS>MOLECULE
en-OPA0_template
26   26    1
SMALL
USER_CHARGES


@<TRIPOS>ATOM
      1 C1          0.4715   -0.1623   -0.1251 C.3       1 UNK         0.0000 
      2 C2          0.6747   -0.0277   -1.6352 C.3       1 UNK         0.0000 
      3 O3          1.5307    1.1047   -1.6073 O.3       1 UNK         0.0000 
      4 P4          1.1020    1.6028    0.0795 P.3       1 UNK         0.0000 
      5 C5          2.8319    2.2198    0.3183 C.3       1 UNK         0.0000 
      6 C6          0.7153    1.7342    1.9589 C.3       1 UNK         0.0000 
      7 C7         -0.0188    2.9138   -0.5366 C.3       1 UNK         0.0000 
      8 C8         -0.8702   -0.6127    0.4219 C.3       1 UNK         0.0000 
      9 C9          1.3141   -1.2058   -2.3455 C.3       1 UNK         0.0000 
     10 H10         1.2692   -0.7934    0.2792 H         1 UNK         0.0000 
     11 H11        -0.2830    0.2149   -2.1225 H         1 UNK         0.0000 
     12 H12        -1.0219   -1.6745    0.2107 H         1 UNK         0.0000 
     13 H13        -1.6927   -0.0670   -0.0418 H         1 UNK         0.0000 
     14 H14        -0.9297   -0.4769    1.5019 H         1 UNK         0.0000 
     15 H15         0.6578   -2.0795   -2.3167 H         1 UNK         0.0000 
     16 H16         2.2627   -1.4649   -1.8696 H         1 UNK         0.0000 
     17 H17         1.5114   -0.9588   -3.3897 H         1 UNK         0.0000 
     18 H18         2.8224    3.3067    0.4002 H         1 UNK         0.0000 
     19 H19         3.2487    1.7909    1.2296 H         1 UNK         0.0000 
     20 H20         3.4441    1.9256   -0.5342 H         1 UNK         0.0000 
     21 H21         1.0089    2.7188    2.3228 H         1 UNK         0.0000 
     22 H22        -0.3529    1.5911    2.1214 H         1 UNK         0.0000 
     23 H23         1.2705    0.9674    2.4991 H         1 UNK         0.0000 
     24 H24         0.4375    3.8899   -0.3714 H         1 UNK         0.0000 
     25 H25        -0.1942    2.7711   -1.6029 H         1 UNK         0.0000 
     26 H26        -0.9676    2.8619   -0.0027 H         1 UNK         0.0000 
@<TRIPOS>BOND
     1    1   10 1    
     2    1    8 1    
     3    1    2 1    
     4    1    4 1    
     5    2   11 1    
     6    2    3 1    
     7    2    9 1    
     8    3    4 1    
     9    4    7 1    
    10    4    5 1    
    11    4    6 1    
    12    5   18 1    
    13    5   19 1    
    14    5   20 1    
    15    6   21 1    
    16    6   22 1    
    17    6   23 1    
    18    7   24 1    
    19    7   25 1    
    20    7   26 1    
    21    8   14 1    
    22    8   13 1    
    23    8   12 1    
    24    9   17 1    
    25    9   16 1    
    26    9   15 1    
@<TRIPOS>SUBSTRUCTURE
     1 UNK         1 GROUP             0       ****    0 ROOT    
